STAAD SPACE
START JOB INFORMATION
ENGINEER DATE 14-Aug-21
END JOB INFORMATION
INPUT WIDTH 79
UNIT METER KN
JOINT COORDINATES
1 0 0 0; 2 3.81 0 0; 3 6.655 0 0; 4 11.328 0 0; 5 3.81 0 -2.985;
6 6.655 0 -2.985; 7 0 0 -4.362; 8 3.81 0 -4.362; 9 8.433 0 -4.362;
10 11.328 0 -4.362; 11 8.433 0 -6.242; 12 11.328 0 -6.242; 13 0 0 -7.01;
14 3.81 0 -7.01; 15 3.81 0 -9.246; 16 8.433 0 -9.246; 17 11.328 0 -9.246;
18 0 0 -11.328; 19 3.81 0 -11.328; 20 8.433 0 -11.328; 21 11.328 0 -11.328;
22 8.433 0 -2.985; 23 8.433 0 0; 93 0 -2 0; 94 3.81 -2 0; 96 11.328 -2 0;
99 0 -2 -4.362; 100 3.81 -2 -4.362; 101 8.433 -2 -4.362; 102 11.328 -2 -4.362;
103 8.433 -2 -6.242; 104 11.328 -2 -6.242; 105 0 -2 -7.01; 106 3.81 -2 -7.01;
107 3.81 -2 -9.246; 108 8.433 -2 -9.246; 109 11.328 -2 -9.246;
110 0 -2 -11.328; 111 3.81 -2 -11.328; 112 8.433 -2 -11.328;
113 11.328 -2 -11.328; 115 8.433 -2 0; 116 0 3.6 0; 117 3.81 3.6 0;
118 6.655 3.6 0; 119 11.328 3.6 0; 120 3.81 3.6 -2.985; 121 6.655 3.6 -2.985;
122 0 3.6 -4.362; 123 3.81 3.6 -4.362; 124 8.433 3.6 -4.362;
125 11.328 3.6 -4.362; 126 8.433 3.6 -6.242; 127 11.328 3.6 -6.242;
128 0 3.6 -7.01; 129 3.81 3.6 -7.01; 130 3.81 3.6 -9.246; 131 8.433 3.6 -9.246;
132 11.328 3.6 -9.246; 133 0 3.6 -11.328; 134 3.81 3.6 -11.328;
135 8.433 3.6 -11.328; 136 11.328 3.6 -11.328; 137 8.433 3.6 -2.985;
138 8.433 3.6 0; 139 0 6.6 0; 140 3.81 6.6 0; 141 6.655 6.6 0;
142 11.328 6.6 0; 143 3.81 6.6 -2.985; 144 6.655 6.6 -2.985; 145 0 6.6 -4.362;
146 3.81 6.6 -4.362; 147 8.433 6.6 -4.362; 148 11.328 6.6 -4.362;
# ... 14 like lines cut
MEMBER INCIDENCES
1 1 2; 2 2 3; 3 3 4; 4 5 6; 5 7 8; 6 8 9; 7 9 10; 8 13 14; 9 11 12; 10 15 16;
11 16 17; 12 18 19; 13 19 20; 14 20 21; 15 1 7; 16 7 13; 17 13 18; 18 2 5;
19 5 8; 20 8 14; 21 14 15; 22 15 19; 23 3 6; 24 9 11; 25 11 16; 26 16 20;
27 4 10; 28 10 12; 29 12 17; 30 17 21; 31 6 22; 32 22 9; 33 23 22; 202 1 93;
203 2 94; 205 4 96; 208 7 99; 209 8 100; 210 9 101; 211 10 102; 212 11 103;
213 12 104; 214 13 105; 215 14 106; 216 15 107; 217 16 108; 218 17 109;
219 18 110; 220 19 111; 221 20 112; 222 21 113; 224 23 115; 225 1 116;
226 2 117; 228 4 119; 231 7 189; 232 8 123; 233 9 124; 234 10 125; 235 11 126;
236 12 127; 237 13 190; 238 14 129; 239 15 130; 240 16 131; 241 17 132;
242 18 133; 243 19 134; 244 20 135; 245 21 136; 247 23 138; 248 116 117;
249 117 118; 250 118 119; 251 120 121; 252 122 123; 253 123 124; 254 124 125;
255 128 129; 256 126 127; 257 130 131; 258 131 132; 259 133 134; 260 134 135;
261 135 136; 262 116 122; 264 128 133; 265 117 120; 266 120 123; 267 123 129;
268 129 130; 269 130 134; 270 118 121; 271 124 126; 272 126 131; 273 131 135;
274 119 125; 275 125 127; 276 127 132; 277 132 136; 278 121 137; 279 137 124;
280 138 137; 281 116 139; 282 117 140; 284 119 142; 287 122 191; 288 123 146;
289 124 147; 290 125 148; 291 126 149; 292 127 150; 293 128 192; 294 129 152;
295 130 153; 296 131 154; 297 132 155; 298 133 156; 299 134 157; 300 135 158;
301 136 159; 303 138 161; 304 139 140; 305 140 141; 306 141 142; 307 143 144;
308 145 146; 309 146 147; 310 147 148; 311 151 152; 312 149 150; 313 153 154;
# ... 15 like lines cut
ELEMENT INCIDENCES SHELL
413 133 134 129 128; 414 134 135 131 130; 415 135 136 132 131;
416 130 131 124 123; 418 131 132 127 126; 419 126 127 125 124;
420 122 123 117 116; 421 123 124 137 120; 422 120 121 118 117;
423 121 137 138 118; 424 124 125 119 138; 425 156 157 152 151;
426 157 158 154 153; 427 158 159 155 154; 428 153 154 147 146;
430 154 155 150 149; 431 149 150 148 147; 432 145 146 140 139;
433 146 147 160 143; 434 143 144 141 140; 435 144 160 161 141;
436 147 148 142 161; 437 179 180 175 174; 438 180 181 177 176;
439 181 182 178 177; 440 176 177 170 169; 442 177 178 173 172;
443 172 173 171 170; 444 168 169 163 162; 445 169 170 183 166;
446 166 167 164 163; 447 167 183 184 164; 448 170 171 165 184;
449 187 188 186 185;
ELEMENT PROPERTY
413 TO 416 418 TO 428 430 TO 440 442 TO 449 THICKNESS 0.1
DEFINE MATERIAL START
ISOTROPIC CONCRETE
E 2.17185e+007
POISSON 0.17
DENSITY 23.5616
ALPHA 1e-005
DAMP 0.05
TYPE CONCRETE
STRENGTH FCU 27579
END DEFINE MATERIAL
MEMBER PROPERTY AMERICAN
202 203 205 208 TO 222 224 TO 226 228 231 TO 245 247 281 282 284 287 TO 301 -
303 337 338 340 343 TO 357 359 393 TO 396 450 TO 455 PRIS YD 0.4 ZD 0.4
1 TO 33 248 TO 262 264 TO 280 304 TO 318 320 TO 336 360 TO 374 376 TO 392 -
397 TO 400 456 TO 458 PRIS YD 0.4 ZD 0.25
CONSTANTS
MATERIAL CONCRETE ALL
SUPPORTS
93 94 96 99 TO 113 115 FIXED
MEMBER OFFSET
1 TO 33 248 TO 262 264 TO 280 304 TO 318 320 TO 336 360 TO 374 376 TO 392 -
397 TO 400 456 TO 458 START 0 -0.15 0
1 TO 33 248 TO 262 264 TO 280 304 TO 318 320 TO 336 360 TO 374 376 TO 392 -
397 TO 400 456 TO 458 END 0 -0.15 0
337 338 340 344 TO 348 350 TO 357 359 393 TO 396 454 455 END 0 0.05 0
LOAD 1 LOADTYPE Dead  TITLE DL
SELFWEIGHT Y -1 
MEMBER LOAD
248 TO 262 264 TO 266 268 TO 279 304 TO 318 320 TO 322 324 TO 335 UNI GY -10.4
360 TO 362 371 TO 374 376 386 TO 389 UNI GY -3.66
FLOOR LOAD
YRANGE 2 11 FLOAD -2.5 GY
MEMBER LOAD
1 TO 15 17 TO 19 21 TO 32 UNI GY -12.8
456 TO 458 UNI GY -16.85
20 267 323 379 UNI GY -18.75
LOAD 2 LOADTYPE Live  TITLE LL
FLOOR LOAD
YRANGE -1 11 FLOAD -3 GY
LOAD COMB 3 Generated Indian Code Genral_Structures 1
1 1.5 2 1.5 
LOAD COMB 4 Generated Indian Code Genral_Structures 2
1 1.2 2 1.2 
LOAD COMB 5 Generated Indian Code Genral_Structures 3
1 1.5 
LOAD COMB 6 Generated Indian Code Genral_Structures 4
1 0.9 
PERFORM ANALYSIS
FINISH
